%chk=AB-AB-NHscan.chk
%nproc=4
%mem=4276MB

#P RwB97XD/6-311G(d,p)int(grid=ultrafine) opt(modred,loose)

AB2-mult-scan3_1.gjf

0 1
B   0.000636   -1.173379   0.000000
N   1.199596   0.173145   0.000000
N   -1.199819   -0.172984   0.000000
B   0.000000   1.172775   0.000000
H   -1.784764   -0.187275   0.823650
H   -1.784764   -0.187275   -0.823650
H   -0.133576   1.782400   1.026751
H   -0.133576   1.782400   -1.026751
H   1.784595   0.187313   -0.823609
H   1.784595   0.187313   0.823609
H   0.132933   -1.781490   -1.028029
H   0.132933   -1.781490   1.028029

B 1 2 S 1 0.1
B 3 4 F

