%chk=AB-AB-NHscan.chk
%nproc=4
%mem=4298MB

#P RwB97XD/6-311G(d,p)int(grid=ultrafine) opt(modred,loose)

AB2-mult-scan8_2.gjf

0 1
B   0.024835   1.301197   0.000000
N   -1.310623   -0.696480   0.000000
N   1.290741   0.659315   0.000000
B   0.000000   -1.247927   0.000000
H   1.825111   0.524539   0.841389
H   1.825111   0.524539   -0.841389
H   0.468123   -1.606424   1.040655
H   0.468123   -1.606424   -1.040655
H   -1.847306   -0.577880   -0.841767
H   -1.847306   -0.577880   0.841767
H   -0.438429   1.656666   -1.042087
H   -0.438429   1.656666   1.042087

B 1 2 F
B 3 4 S 1 0.1

