%chk=AB-AB-NHscan.chk
%nproc=4
%mem=6455MB

#P RwB97XD/6-311G(d,p)int(grid=ultrafine) opt(modred,loose)

AB2-mult-scan8_1.gjf

0 1
B   0.000000   -1.266811   0.000000
N   1.287090   0.642894   0.000000
N   -1.286703   -0.641636   0.000000
B   0.000604   1.267925   0.000000
H   -1.835464   -0.569185   0.840070
H   -1.835464   -0.569185   -0.840070
H   -0.451345   1.643929   1.040658
H   -0.451345   1.643929   -1.040658
H   1.834786   0.563855   -0.840137
H   1.834786   0.563855   0.840137
H   0.449161   -1.645784   -1.041113
H   0.449161   -1.645784   1.041113

B 1 2 S 1 0.1
B 3 4 F

