%chk=AB-AB-NHscan.chk
%nproc=4
%mem=4298MB

#P RwB97XD/6-311G(d,p)int(grid=ultrafine) opt(modred,loose)

AB2-mult-scan10_2.gjf

0 1
B   -0.021288   -1.380061   0.000000
N   1.319586   0.850952   0.000000
N   -1.302794   -0.811541   0.000000
B   0.000000   1.325618   0.000000
H   -1.822763   -0.634200   0.842522
H   -1.822763   -0.634200   -0.842522
H   -0.515129   1.602537   1.042918
H   -0.515129   1.602537   -1.042918
H   1.845503   0.695140   -0.842776
H   1.845503   0.695140   0.842776
H   0.486836   -1.665308   -1.043251
H   0.486836   -1.665308   1.043251

B 1 2 F
B 3 4 S 1 0.1

