%chk=AB-AB-NHscan.chk
%nproc=4
%mem=6453MB

#P RwB97XD/6-311G(d,p)int(grid=ultrafine) opt(modred,loose)

AB2-mult-scan7_1.gjf

0 1
B   0.000000   -1.240513   0.000000
N   1.278445   0.553523   0.000000
N   -1.278509   -0.553415   0.000000
B   -0.000281   1.240777   0.000000
H   -1.834795   -0.509745   0.837708
H   -1.834795   -0.509745   -0.837708
H   -0.405289   1.671764   1.039450
H   -0.405289   1.671764   -1.039450
H   1.834946   0.509741   -0.837592
H   1.834946   0.509741   0.837592
H   0.406065   -1.672792   -1.038609
H   0.406065   -1.672792   1.038609

B 1 2 S 1 0.1
B 3 4 F

