%chk=AB-AB-NHscan.chk
%nproc=4
%mem=6455MB

#P RwB97XD/6-311G(d,p)int(grid=ultrafine) opt(modred,loose)

AB2-mult-scan4_1.gjf

0 1
B   0.000697   -1.199903   0.000000
N   1.219914   0.261169   0.000000
N   -1.220056   -0.260982   0.000000
B   0.000000   1.199390   0.000000
H   -1.801015   -0.282308   0.825796
H   -1.801015   -0.282308   -0.825796
H   -0.201688   1.779675   1.030446
H   -0.201688   1.779675   -1.030446
H   1.801076   0.282544   -0.825679
H   1.801076   0.282544   0.825679
H   0.200378   -1.779284   -1.031627
H   0.200378   -1.779284   1.031627

B 1 2 S 1 0.1
B 3 4 F

