%chk=AB-AB-NHscan.chk
%nproc=4
%mem=4298MB

#P RwB97XD/6-311G(d,p)int(grid=ultrafine) opt(modred,loose)

AB2-mult-scan10_1.gjf

0 1
B   -0.952111   -0.930473   0.000000
N   1.487316   -0.370148   0.000000
N   -1.487227   0.370693   0.000000
B   0.952790   0.928417   0.000000
H   -1.731233   0.859570   0.844283
H   -1.731233   0.859570   -0.844283
H   0.799937   1.496306   1.040489
H   0.799937   1.496306   -1.040489
H   1.740289   -0.857083   -0.842747
H   1.740289   -0.857083   0.842747
H   -0.811003   -1.495558   -1.043442
H   -0.811003   -1.495558   1.043442

B 1 2 S 1 0.1
B 3 4 F

