%chk=AB-AB-NHscan.chk
%nproc=4
%mem=8605MB

#P RwB97XD/6-311G(d,p)int(grid=ultrafine) opt(modred,loose)

AB2-mult-scan9_1.gjf

0 1
B   0.000000   -1.293902   0.000000
N   1.296980   0.728969   0.000000
N   -1.296501   -0.727442   0.000000
B   0.000519   1.295406   0.000000
H   -1.833782   -0.609056   0.841823
H   -1.833782   -0.609056   -0.841823
H   -0.482813   1.625459   1.041982
H   -0.482813   1.625459   -1.041982
H   1.831188   0.599179   -0.842020
H   1.831188   0.599179   0.842020
H   0.482434   -1.624686   -1.042346
H   0.482434   -1.624686   1.042346

B 1 2 S 1 0.1
B 3 4 F

