%chk=AB-AB-NHscan.chk
%nproc=4
%mem=4298MB

#P RwB97XD/6-311G(d,p)int(grid=ultrafine) opt(modred,loose)

AB2-mult-scan2_1.gjf

0 1
B   0.000360   -1.142594   0.000000
N   1.178644   0.086913   0.000000
N   -1.178340   -0.086865   0.000000
B   0.000000   1.142589   0.000000
H   -1.766316   -0.093088   0.821899
H   -1.766316   -0.093088   -0.821899
H   -0.068356   1.773099   1.022816
H   -0.068356   1.773099   -1.022816
H   1.766537   0.092619   -0.822088
H   1.766537   0.092619   0.822088
H   0.066174   -1.772786   -1.023421
H   0.066174   -1.772786   1.023421

B 1 2 S 1 0.1
B 3 4 F

