%chk=AB-AB-NHscan.chk
%nproc=4
%mem=4298MB

#P RwB97XD/6-311G(d,p)int(grid=ultrafine) opt(modred,loose)

AB2-mult-scan4_2.gjf

0 1
B   -0.035850   -1.235186   0.000000
N   1.247684   0.302458   0.000000
N   -1.219447   -0.273444   0.000000
B   0.000000   1.187437   0.000000
H   -1.800326   -0.278044   0.826303
H   -1.800326   -0.278044   -0.826303
H   -0.225218   1.760954   1.030817
H   -0.225218   1.760954   -1.030817
H   1.824918   0.328623   -0.827437
H   1.824918   0.328623   0.827437
H   0.191423   -1.793708   -1.034200
H   0.191423   -1.793708   1.034200

B 1 2 F
B 3 4 S 1 0.1

