%chk=AB-AB-NHscan.chk
%nproc=4
%mem=6453MB

#P RwB97XD/6-311G(d,p)int(grid=ultrafine) opt(modred,loose)

AB2-mult-scan2_2.gjf

0 1
B   -0.039161   -1.179973   0.000000
N   1.206131   0.123820   0.000000
N   -1.175298   -0.095885   0.000000
B   0.000000   1.136478   0.000000
H   -1.764623   -0.091643   0.821358
H   -1.764623   -0.091643   -0.821358
H   -0.087514   1.766861   1.022824
H   -0.087514   1.766861   -1.022824
H   1.790553   0.129986   -0.823809
H   1.790553   0.129986   0.823809
H   0.051573   -1.794240   -1.027605
H   0.051573   -1.794240   1.027605

B 1 2 F
B 3 4 S 1 0.1

