%chk=AB-AB-NHscan.chk
%nproc=4
%mem=4276MB

#P RwB97XD/6-311G(d,p)int(grid=ultrafine) opt(modred,loose)

AB2-mult-scan1_2.gjf

0 1
B   0.040778   1.148102   0.000000
N   -1.182848   -0.036287   0.000000
N   1.150689   0.008992   0.000000
B   -0.000000   -1.106968   0.000000
H   1.743510   0.000315   0.819086
H   1.743510   0.000315   -0.819086
H   0.020096   -1.754566   1.017980
H   0.020096   -1.754566   -1.017980
H   -1.769648   -0.032059   -0.822355
H   -1.769648   -0.032059   0.822355
H   0.016655   1.779008   -1.023469
H   0.016655   1.779008   1.023469

B 1 2 F
B 3 4 S 1 0.1

