%chk=AB-AB-NHscan.chk
%nproc=4
%mem=8605MB

#P RwB97XD/6-311G(d,p)int(grid=ultrafine) opt(modred,loose)

AB2-mult-scan9_2.gjf

0 1
B   0.023136   1.337710   0.000000
N   -1.315724   -0.777049   0.000000
N   1.297101   0.738289   0.000000
B   0.000000   -1.284507   0.000000
H   1.820809   0.571505   0.842244
H   1.820809   0.571505   -0.842244
H   0.495862   -1.598415   1.041857
H   0.495862   -1.598415   -1.041857
H   -1.842669   -0.624652   -0.842520
H   -1.842669   -0.624652   0.842520
H   -0.466661   1.654216   -1.042774
H   -0.466661   1.654216   1.042774

B 1 2 F
B 3 4 S 1 0.1

