%chk=AB-AB-NHscan.chk
%nproc=4
%mem=8605MB

#P RwB97XD/6-311G(d,p)int(grid=ultrafine) opt(modred,loose)

AB2-mult-scan5_1.gjf

0 1
B   0.000758   -1.222046   0.000000
N   1.238730   0.352513   0.000000
N   -1.238773   -0.352242   0.000000
B   0.000000   1.221688   0.000000
H   -1.814629   -0.376089   0.828480
H   -1.814629   -0.376089   -0.828480
H   -0.271700   1.763076   1.033574
H   -0.271700   1.763076   -1.033574
H   1.815147   0.376795   -0.828178
H   1.815147   0.376795   0.828178
H   0.269439   -1.763837   -1.034546
H   0.269439   -1.763837   1.034546

B 1 2 S 1 0.1
B 3 4 F

