%chk=AB-AB-NHscan.chk
%nproc=4
%mem=8605MB

#P RwB97XD/6-311G(d,p)int(grid=ultrafine) opt(modred,loose)

AB2-mult-scan1_1.gjf

0 1
B   0.000000   1.111532   0.000000
N   -1.154966   0.000000   0.000000
N   1.154966   -0.000000   0.000000
B   -0.000000   -1.111532   0.000000
H   1.746262   -0.000000   0.819769
H   1.746262   -0.000000   -0.819769
H   0.000000   -1.756965   1.018609
H   0.000000   -1.756965   -1.018609
H   -1.746262   -0.000000   -0.819769
H   -1.746262   0.000000   0.819769
H   0.000000   1.756965   -1.018609
H   0.000000   1.756965   1.018609

B 1 2 S 1 0.1
B 3 4 F

