%chk=AB-AB-NHscan.chk

%nproc=4
%mem=4298MB
#P wb97xd/6-311G** int(grid=ultrafine) opt(modred,loose)

AB-AB-scan

0 1
 B                  0.00000000    1.11153200    0.00000000
 N                 -1.15496600    0.00000000    0.00000000
 N                  1.15496600    0.00000000    0.00000000
 B                  0.00000000   -1.11153200    0.00000000
 H                  1.74626200    0.00000000    0.81976900
 H                  1.74626200    0.00000000   -0.81976900
 H                  0.00000000   -1.75696500    1.01860900
 H                  0.00000000   -1.75696500   -1.01860900
 H                 -1.74626200    0.00000000   -0.81976900
 H                 -1.74626200    0.00000000    0.81976900
 H                  0.00000000    1.75696500   -1.01860900
 H                  0.00000000    1.75696500    1.01860900

multicoord
B 1 2 S 10 +0.1
B 3 4 S 10 +0.1

